/batch
/config,noeldb,1     ! force off writing results to database
*get,_wallstrt,active,,time,wall
! ANSYS input file written by Workbench version 18.2 RELEASE
! File used for geometry attach: D:\Documents\GitHub\Bald-Guy-From-Die-Hard\Engine Model\Oxidizer Tank\Cylindrical Part ansys igs.IGS
/title,unsaved_project--Static Structural (A5)
*DIM,_wb_ProjectScratch_dir,string,248
_wb_ProjectScratch_dir(1) = 'C:\Users\dkola\AppData\Local\Temp\WB_DESKTOP-KH6BDH9_dkola_20344_2\_ProjectScratch\Scr4042\'
*DIM,_wb_SolverFiles_dir,string,248
_wb_SolverFiles_dir(1) = 'C:\Users\dkola\AppData\Local\Temp\WB_DESKTOP-KH6BDH9_dkola_20344_2\unsaved_project_files\dp0\SYS\MECH\'
*DIM,_wb_userfiles_dir,string,248
_wb_userfiles_dir(1) = 'C:\Users\dkola\AppData\Local\Temp\WB_DESKTOP-KH6BDH9_dkola_20344_2\unsaved_project_files\user_files\'
/com,--- Data in consistent BIN units. See Solving Units in the help system for more information.
/units,BIN
/nopr
/wb,file,start              !  signify a WB generated input file
/prep7
! Turn off shape checking because checks already performed inside WB mesher.
! See help system for more information.
SHPP,OFF,,NOWARN
/nolist
etcon,set             ! allow ANSYS to choose best KEYOP's for 180x elements
/com,*********** Nodes for the whole assembly ***********
nblock,3,,1834
(1i9,3e20.9e3)
        1    2.095375454E+000    5.000000193E-001   -1.522334295E+000
        2    2.307734121E+000    5.000000193E-001   -1.175781963E+000
        3    2.463217908E+000    5.000000193E-001   -8.004108541E-001
        4    2.558107062E+000    5.000000193E-001   -4.052015071E-001
        5    2.095375578E+000    1.000000039E+000   -1.522334125E+000
        6    2.307734026E+000    1.000000039E+000   -1.175782151E+000
        7    2.463217843E+000    1.000000039E+000   -8.004110549E-001
        8    2.558107029E+000    1.000000039E+000   -4.052017130E-001
        9    2.095375581E+000    1.500000058E+000   -1.522334120E+000
       10    2.307734028E+000    1.500000058E+000   -1.175782146E+000
       11    2.463217845E+000    1.500000058E+000   -8.004110492E-001
       12    2.558107030E+000    1.500000058E+000   -4.052017072E-001
       13    2.095375585E+000    2.000000077E+000   -1.522334115E+000
       14    2.307734031E+000    2.000000077E+000   -1.175782141E+000
       15    2.463217847E+000    2.000000077E+000   -8.004110436E-001
       16    2.558107031E+000    2.000000077E+000   -4.052017013E-001
       17    2.095375588E+000    2.500000096E+000   -1.522334110E+000
       18    2.307734034E+000    2.500000096E+000   -1.175782135E+000
       19    2.463217849E+000    2.500000096E+000   -8.004110379E-001
       20    2.558107032E+000    2.500000096E+000   -4.052016955E-001
! ... 1649 like lines cut
/wb,elem,start            !  set before creation of elements
/com,*********** Elements for Body 1 "Part 1" ***********
et,1,186
keyo,1,2,1          ! set full integration on SOLID186
eblock,19,solid,,205
(19i9)
        1        1        1        1        0        0        0        0       20        0        1      160      501      500      499      161      324      325      326
     1028     1665     1664     1027     1031     1400     1402     1032     1026     1401     1403     1405
        1        1        1        1        0        0        0        0       20        0        2      156      160      499      498      165      161      326      327
     1013     1027     1663     1015     1030     1032     1404     1044     1014     1026     1405     1407
        1        1        1        1        0        0        0        0       20        0        3      152      156      498      497      169      165      327      328
     1000     1015     1662     1002     1043     1044     1406     1053     1001     1014     1407     1409
        1        1        1        1        0        0        0        0       20        0        4      148      152      497      496      173      169      328      329
      987     1002     1661      989     1052     1053     1408     1062      988     1001     1409     1411
        1        1        1        1        0        0        0        0       20        0        5      144      148      496      495      177      173      329      330
      974      989     1660      976     1061     1062     1410     1071      975      988     1411     1413
        1        1        1        1        0        0        0        0       20        0        6      140      144      495      494      181      177      330      331
      961      976     1659      963     1070     1071     1412     1080      962      975     1413     1415
        1        1        1        1        0        0        0        0       20        0        7      136      140      494      493      185      181      331      332
      948      963     1658      950     1079     1080     1414     1089      949      962     1415     1417
        1        1        1        1        0        0        0        0       20        0        8      132      136      493      492      189      185      332      333
      935      950     1657      937     1088     1089     1416     1098      936      949     1417     1419
        1        1        1        1        0        0        0        0       20        0        9      128      132      492      491      193      189      333      334
      922      937     1656      924     1097     1098     1418     1107      923      936     1419     1421
        1        1        1        1        0        0        0        0       20        0       10      124      128      491      490      197      193      334      335
      909      924     1655      911     1106     1107     1420     1116      910      923     1421     1423
! ... 391 like lines cut
!Material Id = {9562F2F7-9B90-44BE-9B74-16FEAB46DD2C}
/wb,elem,end               !  done creating elements
/com,*********** Send User Defined Coordinate System(s) ***********
csys,0
toffst,459.67,  ! Temperature offset from absolute zero
/com,*********** Set Reference Temperature ***********
tref,71.6
/wb,mat,start              !  starting to send materials
/com,*********** Send Materials ***********
MP,EX,1,1450.37737714118,	! slinch s^-2 in^-1
MP,NUXY,1,0.33,

/wb,mat,end                !  done sending materials
!************************* Model Summary ********************
!Part 1,	Aluminum 6061-T6,	matid,	1
!************************* End Model Summary ********************
! get the diagonal of the bounding box. Needed later for other things
*get,_xmin,node,,mnloc,x
*get,_ymin,node,,mnloc,y
*get,_zmin,node,,mnloc,z
*get,_xmax,node,,mxloc,x
*get,_ymax,node,,mxloc,y
*get,_zmax,node,,mxloc,z
_ASMDIAG=(_xmax-_xmin)*(_xmax-_xmin)+(_ymax-_ymin)*(_ymax-_ymin)+(_zmax-_zmin)*(_zmax-_zmin)
_ASMDIAG=SQRT(_ASMDIAG)
/wb,contact,start          !  starting to send contact
/wb,contact,end            !  done creating contacts
/golist
/wb,load,start             !  starting to send loads
/com,********* Frictionless Supports X *********
CMBLOCK,_FRICSUX,NODE,        6
(8i10)
       371       412       453       454      1495      1576
cmsel,s,_FRICSUX
d,all,ux,0
nsel,all
/com,********* Frictionless Supports Y *********
CMBLOCK,_FRICSUY,NODE,       56
(8i10)
       321       322       323       324       325       366       367       368
       369       370       371       412       453       454       455       456
       457       458       459       500       501       502       503       504
      1393      1394      1395      1396      1397      1398      1399      1400
      1401      1403      1484      1485      1486      1487      1488      1489
      1490      1491      1492      1493      1495      1576      1618      1619
      1620      1621      1622      1623      1665      1666      1667      1668

cmsel,s,_FRICSUY
d,all,uy,0
nsel,all
/com,********* Frictionless Supports Z *********
CMBLOCK,_FRICSUZ,NODE,      410
(8i10)
       325       326       327       328       329       330       331       332
       333       334       335       336       337       338       339       340
       341       342       343       344       345       346       347       348
       349       350       351       352       353       354       355       356
       357       358       359       360       361       362       363       364
       365       366       372       373       374       375       376       377
       378       379       380       381       382       383       384       385
       386       387       388       389       390       391       392       393
       394       395       396       397       398       399       400       401
       402       403       404       405       406       407       408       409
       410       411       413       414       415       416       417       418
       419       420       421       422       423       424       425       426
       427       428       429       430       431       432       433       434
       435       436       437       438       439       440       441       442
       443       444       445       446       447       448       449       450
       451       452       459       460       461       462       463       464
       465       466       467       468       469       470       471       472
       473       474       475       476       477       478       479       480
       481       482       483       484       485       486       487       488
       489       490       491       492       493       494       495       496
! ... 32 like lines cut
cmsel,s,_FRICSUZ
d,all,uz,0
nsel,all
/com,*********** Node Rotations ***********
nmod,371,,,,0.,0.,-45.
nmod,372,,,,0.,0.,45.
nmod,373,,,,0.,0.,45.
nmod,374,,,,0.,0.,45.
nmod,375,,,,0.,0.,45.
nmod,376,,,,0.,0.,45.
nmod,377,,,,0.,0.,45.
nmod,378,,,,0.,0.,45.
nmod,379,,,,0.,0.,45.
nmod,380,,,,0.,0.,45.
nmod,381,,,,0.,0.,45.
nmod,382,,,,0.,0.,45.
nmod,383,,,,0.,0.,45.
nmod,384,,,,0.,0.,45.
nmod,385,,,,0.,0.,45.
nmod,386,,,,0.,0.,45.
nmod,387,,,,0.,0.,45.
nmod,388,,,,0.,0.,45.
nmod,389,,,,0.,0.,45.
nmod,390,,,,0.,0.,45.
! ... 188 like lines cut
/com,*********** Define Pressure Using Surface Effect Elements ***********
et,2,154
eblock,10,,,205
(15i9)
      206        2        2        2        0      501      160      499      500     1028     1027     1664     1665
      207        2        2        2        0      160      156      498      499     1013     1015     1663     1027
      208        2        2        2        0      156      152      497      498     1000     1002     1662     1015
      209        2        2        2        0      152      148      496      497      987      989     1661     1002
      210        2        2        2        0      148      144      495      496      974      976     1660      989
      211        2        2        2        0      144      140      494      495      961      963     1659      976
      212        2        2        2        0      140      136      493      494      948      950     1658      963
      213        2        2        2        0      136      132      492      493      935      937     1657      950
      214        2        2        2        0      132      128      491      492      922      924     1656      937
      215        2        2        2        0      128      124      490      491      909      911     1655      924
      216        2        2        2        0      124      120      489      490      896      898     1654      911
      217        2        2        2        0      120      116      488      489      883      885     1653      898
      218        2        2        2        0      116      112      487      488      870      872     1652      885
      219        2        2        2        0      112      108      486      487      857      859     1651      872
      220        2        2        2        0      108      104      485      486      844      846     1650      859
      221        2        2        2        0      104      100      484      485      831      833     1649      846
      222        2        2        2        0      100       96      483      484      818      820     1648      833
      223        2        2        2        0       96       92      482      483      805      807     1647      820
      224        2        2        2        0       92       88      481      482      792      794     1646      807
      225        2        2        2        0       88       84      480      481      779      781     1645      794
! ... 186 like lines cut
esel,s,type,,2
esel,all

*DIM,_loadvari33,TABLE,2,1,1,TIME,
! Time values
_loadvari33(1,0,1) = 0.
_loadvari33(2,0,1) = 1.
! Load values
_loadvari33(1,1,1) = 0.
_loadvari33(2,1,1) = 1499.99999979695

esel,all
/gst,on,on
fini
*get,_numnode,node,0,count
*get,_numelem,elem,0,count
*get, _MAXELEMNUM, elem, 0, NUM, MAX
*get, _MAXNODENUM, node, 0, NUM, MAX
*get, _MAXELEMTYPE, etyp, 0, NUM, MAX
*get, _MAXREALCONST, real, 0, NUM, MAX
/go
/wb,load,end               !  done creating loads
/com,--- Number of total nodes = %_numnode%
/com,--- Number of contact elements = 205
/com,--- Number of spring elements = 0
/com,--- Number of bearing elements = 0
/com,--- Number of solid elements = 205
/com,--- Number of condensed parts = 0
/com,--- Number of total elements = %_numelem%
*get,_wallbsol,active,,time,wall
/com,****************************************************************************
/com,*************************    SOLUTION       ********************************
/com,****************************************************************************
/solu
antype,0                   ! static analysis
eqsl,sparse,,,,,1
cntr,print,1               ! print out contact info and also make no initial contact an error
dmpoption,emat,no             ! Don't combine emat file for DANSYS
dmpoption,esav,no             ! Don't combine esav file for DANSYS
nldiag,cont,iter           ! print out contact info each equilibrium iteration
rescontrol,,none                 ! Do not keep any restart files
/com,****************************************************
/com,******************* SOLVE FOR LS 1 OF 1 ****************
esel,s,type,,2
nsle
sf,all,pres,%_loadvari33%
nsel,all
esel,all
esel,all
/nopr
/gopr
nsub,1,1,1
time,1.
outres,erase
outres,all,none
outres,nsol,all
outres,rsol,all
outres,strs,all
outres,epel,all
outres,eppl,all
stabilize,off                   ! Stabilization turned OFF by user
! *********** WB SOLVE COMMAND ***********
! check interactive state
*get,ANSINTER_,active,,int
*if,ANSINTER_,ne,0,then
/eof
*endif
solve
/com *************** Write FE CONNECTORS ********* 
CEWRITE,file,ce,,INTE
/com,****************************************************
/com,*************** FINISHED SOLVE FOR LS 1 *************
*get,_wallasol,active,,time,wall
/nopr
*get,_numnode,node,0,count
*get,_numelem,elem,0,count
*get, _MAXELEMNUM, elem, 0, NUM, MAX
*get, _MAXNODENUM, node, 0, NUM, MAX,,,INTERNAL
*get, _MAXELEMTYPE, etyp, 0, NUM, MAX
*get, _MAXREALCONST, real, 0, NUM, MAX
/gopr
/post1
xmlo,ENCODING,ISO-8859-1
xmlo,parm
/xml,parm,xml
fini
/gopr
*get,_walldone,active,,time,wall
_preptime=(_wallbsol-_wallstrt)*3600
_solvtime=(_wallasol-_wallbsol)*3600
_posttime=(_walldone-_wallasol)*3600
_totaltim=(_walldone-_wallstrt)*3600
/wb,file,end               ! done with WB generated input
